8
Generated by cif2cell 2.0.0.  :  Kitano, A. et al., Physical Review, Serie 3. B - Condensed Matter (18,1978-) 64, 0452061-0452069 (2001).
Si    0.000000000000000   0.000000000000000   0.000000000000000
Si    4.035750000000000   4.035750000000000   1.345250000000000
Si    2.690500000000000   0.000000000000000   2.690500000000000
Si    4.035750000000000   1.345250000000000   4.035750000000000
Si    0.000000000000000   2.690500000000000   2.690500000000000
Si    1.345250000000000   1.345250000000000   1.345250000000000
Si    1.345250000000000   4.035750000000000   4.035750000000000
Si    2.690500000000000   2.690500000000000   0.000000000000000
